data/profiles/ieee118bus_Power_elem_MVA.txt

CIRCUIT ELEMENT POWER FLOW

(Power Flow into element from indicated Bus)

Power Delivery Elements

  Bus Phase     MW     +j   Mvar         MVA         PF

ELEMENT = "Vsource.source"
89_CLINCHRV    1      -106.2 +j   -116.8      157.9       0.6727
89_CLINCHRV    2      -106.2 +j   -116.8      157.9       0.6727
89_CLINCHRV    3      -106.2 +j   -116.8      157.9       0.6727
   TERMINAL TOTAL  -318.6 +j   -350.5      473.7       0.6727
89_CLINCHRV    0         0.0 +j      0.0        0.0       1.0000
89_CLINCHRV    0         0.0 +j      0.0        0.0       1.0000
89_CLINCHRV    0         0.0 +j      0.0        0.0       1.0000
   TERMINAL TOTAL     0.0 +j      0.0        0.0       1.0000

ELEMENT = "Line.1_2_1_1"
1_RIVERSDE     1        -0.0 +j     -0.0        0.0       0.9534
1_RIVERSDE     2        -0.0 +j     -0.0        0.0       0.9534
1_RIVERSDE     3        -0.0 +j     -0.0        0.0       0.9534
   TERMINAL TOTAL    -0.1 +j     -0.0        0.1       0.9534
2_POKAGON     1         0.0 +j      0.0        0.0       0.9809
2_POKAGON     2         0.0 +j      0.0        0.0       0.9809
2_POKAGON     3         0.0 +j      0.0        0.0       0.9809
   TERMINAL TOTAL     0.1 +j      0.0        0.1       0.9809

ELEMENT = "Line.1_3_1_1"
1_RIVERSDE     1        -0.1 +j     -0.1        0.1       0.8477
1_RIVERSDE     2        -0.1 +j     -0.1        0.1       0.8477
1_RIVERSDE     3        -0.1 +j     -0.1        0.1       0.8477
   TERMINAL TOTAL    -0.3 +j     -0.2        0.3       0.8477
3_HICKRYCK     1         0.1 +j      0.1        0.1       0.8513
3_HICKRYCK     2         0.1 +j      0.1        0.1       0.8513
3_HICKRYCK     3         0.1 +j      0.1        0.1       0.8513
   TERMINAL TOTAL     0.3 +j      0.2        0.3       0.8513

ELEMENT = "Line.2_12_1_1"
2_POKAGON     1        -0.1 +j     -0.0        0.1       0.9470
2_POKAGON     2        -0.1 +j     -0.0        0.1       0.9470
2_POKAGON     3        -0.1 +j     -0.0        0.1       0.9470
   TERMINAL TOTAL    -0.3 +j     -0.1        0.3       0.9470
12_TWINBRCH     1         0.1 +j      0.0        0.1       0.9513
12_TWINBRCH     2         0.1 +j      0.0        0.1       0.9513
12_TWINBRCH     3         0.1 +j      0.0        0.1       0.9513
   TERMINAL TOTAL     0.3 +j      0.1        0.3       0.9513

ELEMENT = "Line.3_5_1_1"
3_HICKRYCK     1        -0.1 +j     -0.1        0.2       0.9017
3_HICKRYCK     2        -0.1 +j     -0.1        0.2       0.9017
3_HICKRYCK     3        -0.1 +j     -0.1        0.2       0.9017
   TERMINAL TOTAL    -0.4 +j     -0.2        0.5       0.9017
5_OLIVE     1         0.1 +j      0.1        0.2       0.8922
5_OLIVE     2         0.1 +j      0.1        0.2       0.8922
5_OLIVE     3         0.1 +j      0.1        0.2       0.8922
   TERMINAL TOTAL     0.4 +j      0.2        0.5       0.8922

ELEMENT = "Line.3_12_1_1"
3_HICKRYCK     1        -0.0 +j     -0.0        0.0       0.9804
3_HICKRYCK     2        -0.0 +j     -0.0        0.0       0.9804
3_HICKRYCK     3        -0.0 +j     -0.0        0.0       0.9804
   TERMINAL TOTAL    -0.1 +j     -0.0        0.1       0.9804
12_TWINBRCH     1         0.0 +j     -0.0        0.0      -0.9999
12_TWINBRCH     2         0.0 +j     -0.0        0.0      -0.9999
12_TWINBRCH     3         0.0 +j     -0.0        0.0      -0.9999
   TERMINAL TOTAL     0.1 +j     -0.0        0.1      -0.9999

ELEMENT = "Line.4_5_1_1"
4_NWCARLSL     1        -0.2 +j     -0.1        0.2       0.9055
4_NWCARLSL     2        -0.2 +j     -0.1        0.2       0.9055
4_NWCARLSL     3        -0.2 +j     -0.1        0.2       0.9055
   TERMINAL TOTAL    -0.6 +j     -0.3        0.7       0.9055
5_OLIVE     1         0.2 +j      0.1        0.2       0.9039
5_OLIVE     2         0.2 +j      0.1        0.2       0.9039
5_OLIVE     3         0.2 +j      0.1        0.2       0.9039
   TERMINAL TOTAL     0.6 +j      0.3        0.7       0.9039

ELEMENT = "Line.4_11_1_1"
4_NWCARLSL     1         0.1 +j      0.1        0.1       0.8452
4_NWCARLSL     2         0.1 +j      0.1        0.1       0.8452
4_NWCARLSL     3         0.1 +j      0.1        0.1       0.8452
   TERMINAL TOTAL     0.3 +j      0.2        0.4       0.8452
11_SOUTHBND     1        -0.1 +j     -0.1        0.1       0.8427
11_SOUTHBND     2        -0.1 +j     -0.1        0.1       0.8427
11_SOUTHBND     3        -0.1 +j     -0.1        0.1       0.8427
   TERMINAL TOTAL    -0.3 +j     -0.2        0.4       0.8427

ELEMENT = "Line.5_6_1_1"
5_OLIVE     1         0.2 +j      0.1        0.2       0.8771
5_OLIVE     2         0.2 +j      0.1        0.2       0.8771
5_OLIVE     3         0.2 +j      0.1        0.2       0.8771
   TERMINAL TOTAL     0.5 +j      0.3        0.6       0.8771
6_KANKAKEE     1        -0.2 +j     -0.1        0.2       0.8856
6_KANKAKEE     2        -0.2 +j     -0.1        0.2       0.8856
6_KANKAKEE     3        -0.2 +j     -0.1        0.2       0.8856
   TERMINAL TOTAL    -0.5 +j     -0.3        0.6       0.8856

ELEMENT = "Line.5_11_1_1"
5_OLIVE     1         0.1 +j      0.1        0.1       0.8581
5_OLIVE     2         0.1 +j      0.1        0.1       0.8581
5_OLIVE     3         0.1 +j      0.1        0.1       0.8581
   TERMINAL TOTAL     0.4 +j      0.2        0.4       0.8581
11_SOUTHBND     1        -0.1 +j     -0.1        0.1       0.8607
11_SOUTHBND     2        -0.1 +j     -0.1        0.1       0.8607
11_SOUTHBND     3        -0.1 +j     -0.1        0.1       0.8607
   TERMINAL TOTAL    -0.4 +j     -0.2        0.4       0.8607

ELEMENT = "Line.6_7_1_1"
6_KANKAKEE     1         0.0 +j      0.0        0.1       0.7626
6_KANKAKEE     2         0.0 +j      0.0        0.1       0.7626
6_KANKAKEE     3         0.0 +j      0.0        0.1       0.7626
   TERMINAL TOTAL     0.1 +j      0.1        0.2       0.7626
7_JACKSNRD     1        -0.0 +j     -0.0        0.1       0.7538
7_JACKSNRD     2        -0.0 +j     -0.0        0.1       0.7538
7_JACKSNRD     3        -0.0 +j     -0.0        0.1       0.7538
   TERMINAL TOTAL    -0.1 +j     -0.1        0.2       0.7538

ELEMENT = "Line.7_12_1_1"
7_JACKSNRD     1        -0.0 +j      0.0        0.0      -0.2095
7_JACKSNRD     2        -0.0 +j      0.0        0.0      -0.2095
7_JACKSNRD     3        -0.0 +j      0.0        0.0      -0.2095
   TERMINAL TOTAL    -0.0 +j      0.1        0.1      -0.2095
12_TWINBRCH     1         0.0 +j     -0.0        0.0      -0.2001
12_TWINBRCH     2         0.0 +j     -0.0        0.0      -0.2001
12_TWINBRCH     3         0.0 +j     -0.0        0.0      -0.2001
   TERMINAL TOTAL     0.0 +j     -0.1        0.1      -0.2001

ELEMENT = "Line.8_9_1_1"
8_OLIVE     1        -0.0 +j     -0.6        0.6       0.0210
8_OLIVE     2        -0.0 +j     -0.6        0.6       0.0210
8_OLIVE     3        -0.0 +j     -0.6        0.6       0.0210
   TERMINAL TOTAL    -0.0 +j     -1.8        1.8       0.0210
9_BEQUINE     1         0.0 +j      0.3        0.3       0.0434
9_BEQUINE     2         0.0 +j      0.3        0.3       0.0434
9_BEQUINE     3         0.0 +j      0.3        0.3       0.0434
   TERMINAL TOTAL     0.0 +j      1.0        1.0       0.0434

ELEMENT = "Line.8_30_1_1"
8_OLIVE     1        -0.7 +j      0.1        0.7      -0.9933
8_OLIVE     2        -0.7 +j      0.1        0.7      -0.9933
8_OLIVE     3        -0.7 +j      0.1        0.7      -0.9933
   TERMINAL TOTAL    -2.2 +j      0.3        2.2      -0.9933
30_SORENSON     1         0.7 +j     -0.1        0.7      -0.9890
30_SORENSON     2         0.7 +j     -0.1        0.7      -0.9890
30_SORENSON     3         0.7 +j     -0.1        0.7      -0.9890
   TERMINAL TOTAL     2.2 +j     -0.3        2.2      -0.9890

ELEMENT = "Line.9_10_1_1"
9_BEQUINE     1        -0.0 +j     -0.3        0.3       0.0434
9_BEQUINE     2        -0.0 +j     -0.3        0.3       0.0434
9_BEQUINE     3        -0.0 +j     -0.3        0.3       0.0434
   TERMINAL TOTAL    -0.0 +j     -1.0        1.0       0.0434
10_BREED     1         0.0 +j      0.0        0.0       0.9138
10_BREED     2         0.0 +j      0.0        0.0       0.9138
10_BREED     3         0.0 +j      0.0        0.0       0.9138
   TERMINAL TOTAL     0.0 +j      0.0        0.0       0.9138

ELEMENT = "Line.11_12_1_1"
11_SOUTHBND     1         0.1 +j      0.0        0.1       0.8768
11_SOUTHBND     2         0.1 +j      0.0        0.1       0.8768
11_SOUTHBND     3         0.1 +j      0.0        0.1       0.8768
   TERMINAL TOTAL     0.2 +j      0.1        0.3       0.8768
12_TWINBRCH     1        -0.1 +j     -0.0        0.1       0.8746
12_TWINBRCH     2        -0.1 +j     -0.0        0.1       0.8746
12_TWINBRCH     3        -0.1 +j     -0.0        0.1       0.8746
   TERMINAL TOTAL    -0.2 +j     -0.1        0.3       0.8746

ELEMENT = "Line.11_13_1_1"
11_SOUTHBND     1        -0.0 +j      0.0        0.0      -0.6785
11_SOUTHBND     2        -0.0 +j      0.0        0.0      -0.6785
11_SOUTHBND     3        -0.0 +j      0.0        0.0      -0.6785
   TERMINAL TOTAL    -0.1 +j      0.1        0.1      -0.6785
13_CONCORD     1         0.0 +j     -0.0        0.1      -0.6488
13_CONCORD     2         0.0 +j     -0.0        0.1      -0.6488
13_CONCORD     3         0.0 +j     -0.0        0.1      -0.6488
   TERMINAL TOTAL     0.1 +j     -0.1        0.2      -0.6488

ELEMENT = "Line.12_14_1_1"
12_TWINBRCH     1        -0.1 +j      0.0        0.1      -0.9967
12_TWINBRCH     2        -0.1 +j      0.0        0.1      -0.9967
12_TWINBRCH     3        -0.1 +j      0.0        0.1      -0.9967
   TERMINAL TOTAL    -0.3 +j      0.0        0.3      -0.9967
14_GOSHENJT     1         0.1 +j     -0.0        0.1      -0.9958
14_GOSHENJT     2         0.1 +j     -0.0        0.1      -0.9958
14_GOSHENJT     3         0.1 +j     -0.0        0.1      -0.9958
   TERMINAL TOTAL     0.3 +j     -0.0        0.3      -0.9958

ELEMENT = "Line.12_16_1_1"
12_TWINBRCH     1        -0.1 +j      0.0        0.1      -0.9991
12_TWINBRCH     2        -0.1 +j      0.0        0.1      -0.9991
12_TWINBRCH     3        -0.1 +j      0.0        0.1      -0.9991
   TERMINAL TOTAL    -0.3 +j      0.0        0.3      -0.9991
16_NE     1         0.1 +j     -0.0        0.1      -0.9991
16_NE     2         0.1 +j     -0.0        0.1      -0.9991
16_NE     3         0.1 +j     -0.0        0.1      -0.9991
   TERMINAL TOTAL     0.3 +j     -0.0        0.3      -0.9991

ELEMENT = "Line.12_117_1_1"
12_TWINBRCH     1         0.0 +j      0.0        0.1       0.9636
12_TWINBRCH     2         0.0 +j      0.0        0.1       0.9636
12_TWINBRCH     3         0.0 +j      0.0        0.1       0.9636
   TERMINAL TOTAL     0.1 +j      0.0        0.2       0.9636
117_COREY     1        -0.0 +j     -0.0        0.1       0.9285
117_COREY     2        -0.0 +j     -0.0        0.1       0.9285
117_COREY     3        -0.0 +j     -0.0        0.1       0.9285
   TERMINAL TOTAL    -0.1 +j     -0.1        0.2       0.9285

ELEMENT = "Line.13_15_1_1"
13_CONCORD     1        -0.1 +j     -0.0        0.1       1.0000
13_CONCORD     2        -0.1 +j     -0.0        0.1       1.0000
13_CONCORD     3        -0.1 +j     -0.0        0.1       1.0000
   TERMINAL TOTAL    -0.4 +j     -0.0        0.4       1.0000
15_FTWAYNE     1         0.1 +j      0.0        0.1       0.9999
15_FTWAYNE     2         0.1 +j      0.0        0.1       0.9999
15_FTWAYNE     3         0.1 +j      0.0        0.1       0.9999
   TERMINAL TOTAL     0.4 +j      0.0        0.4       0.9999

ELEMENT = "Line.14_15_1_1"
14_GOSHENJT     1        -0.1 +j      0.0        0.1      -0.9988
14_GOSHENJT     2        -0.1 +j      0.0        0.1      -0.9988
14_GOSHENJT     3        -0.1 +j      0.0        0.1      -0.9988
   TERMINAL TOTAL    -0.4 +j      0.0        0.4      -0.9988
15_FTWAYNE     1         0.1 +j     -0.0        0.1      -0.9997
15_FTWAYNE     2         0.1 +j     -0.0        0.1      -0.9997
15_FTWAYNE     3         0.1 +j     -0.0        0.1      -0.9997
   TERMINAL TOTAL     0.4 +j     -0.0        0.4      -0.9997

ELEMENT = "Line.15_17_1_1"
15_FTWAYNE     1        -0.2 +j     -0.1        0.2       0.8946
15_FTWAYNE     2        -0.2 +j     -0.1        0.2       0.8946
15_FTWAYNE     3        -0.2 +j     -0.1        0.2       0.8946
   TERMINAL TOTAL    -0.6 +j     -0.3        0.6       0.8946
17_SORENSON     1         0.2 +j      0.1        0.2       0.9026
17_SORENSON     2         0.2 +j      0.1        0.2       0.9026
17_SORENSON     3         0.2 +j      0.1        0.2       0.9026
   TERMINAL TOTAL     0.6 +j      0.3        0.6       0.9026

ELEMENT = "Line.15_19_1_1"
15_FTWAYNE     1        -0.1 +j      0.0        0.1      -0.9724
15_FTWAYNE     2        -0.1 +j      0.0        0.1      -0.9724
15_FTWAYNE     3        -0.1 +j      0.0        0.1      -0.9724
   TERMINAL TOTAL    -0.4 +j      0.1        0.4      -0.9724
19_LINCOLN     1         0.1 +j     -0.0        0.1      -0.9726
19_LINCOLN     2         0.1 +j     -0.0        0.1      -0.9726
19_LINCOLN     3         0.1 +j     -0.0        0.1      -0.9726
   TERMINAL TOTAL     0.4 +j     -0.1        0.4      -0.9726

ELEMENT = "Line.15_33_1_1"
15_FTWAYNE     1        -0.2 +j     -0.0        0.2       0.9976
15_FTWAYNE     2        -0.2 +j     -0.0        0.2       0.9976
15_FTWAYNE     3        -0.2 +j     -0.0        0.2       0.9976
   TERMINAL TOTAL    -0.6 +j     -0.0        0.6       0.9976
33_HAVILAND     1         0.2 +j      0.0        0.2       0.9929
33_HAVILAND     2         0.2 +j      0.0        0.2       0.9929
33_HAVILAND     3         0.2 +j      0.0        0.2       0.9929
   TERMINAL TOTAL     0.6 +j      0.1        0.6       0.9929

ELEMENT = "Line.16_17_1_1"
16_NE     1        -0.2 +j     -0.0        0.2       0.9936
16_NE     2        -0.2 +j     -0.0        0.2       0.9936
16_NE     3        -0.2 +j     -0.0        0.2       0.9936
   TERMINAL TOTAL    -0.5 +j     -0.1        0.5       0.9936
17_SORENSON     1         0.2 +j      0.0        0.2       0.9845
17_SORENSON     2         0.2 +j      0.0        0.2       0.9845
17_SORENSON     3         0.2 +j      0.0        0.2       0.9845
   TERMINAL TOTAL     0.6 +j      0.1        0.6       0.9845

ELEMENT = "Line.17_18_1_1"
17_SORENSON     1         0.1 +j      0.1        0.1       0.7494
17_SORENSON     2         0.1 +j      0.1        0.1       0.7494
17_SORENSON     3         0.1 +j      0.1        0.1       0.7494
   TERMINAL TOTAL     0.3 +j      0.3        0.4       0.7494
18_MCKINLEY     1        -0.1 +j     -0.1        0.1       0.7502
18_MCKINLEY     2        -0.1 +j     -0.1        0.1       0.7502
18_MCKINLEY     3        -0.1 +j     -0.1        0.1       0.7502
   TERMINAL TOTAL    -0.3 +j     -0.3        0.4       0.7502

ELEMENT = "Line.17_31_1_1"
17_SORENSON     1         0.0 +j      0.0        0.1       0.4864
17_SORENSON     2         0.0 +j      0.0        0.1       0.4864
17_SORENSON     3         0.0 +j      0.0        0.1       0.4864
   TERMINAL TOTAL     0.1 +j      0.1        0.2       0.4864
31_DEERCRK     1        -0.0 +j     -0.1        0.1       0.4291
31_DEERCRK     2        -0.0 +j     -0.1        0.1       0.4291
31_DEERCRK     3        -0.0 +j     -0.1        0.1       0.4291
   TERMINAL TOTAL    -0.1 +j     -0.2        0.2       0.4291

ELEMENT = "Line.17_113_1_1"
17_SORENSON     1        -0.0 +j      0.0        0.0      -0.6581
17_SORENSON     2        -0.0 +j      0.0        0.0      -0.6581
17_SORENSON     3        -0.0 +j      0.0        0.0      -0.6581
   TERMINAL TOTAL    -0.1 +j      0.1        0.1      -0.6581
113_DEERCRK     1         0.0 +j     -0.0        0.0      -0.6330
113_DEERCRK     2         0.0 +j     -0.0        0.0      -0.6330
113_DEERCRK     3         0.0 +j     -0.0        0.0      -0.6330
   TERMINAL TOTAL     0.1 +j     -0.1        0.1      -0.6330

ELEMENT = "Line.18_19_1_1"
18_MCKINLEY     1        -0.0 +j      0.0        0.0      -0.9908
18_MCKINLEY     2        -0.0 +j      0.0        0.0      -0.9908
18_MCKINLEY     3        -0.0 +j      0.0        0.0      -0.9908
   TERMINAL TOTAL    -0.1 +j      0.0        0.1      -0.9908
19_LINCOLN     1         0.0 +j     -0.0        0.1      -0.9845
19_LINCOLN     2         0.0 +j     -0.0        0.1      -0.9845
19_LINCOLN     3         0.0 +j     -0.0        0.1      -0.9845
   TERMINAL TOTAL     0.1 +j     -0.0        0.2      -0.9845

ELEMENT = "Line.19_20_1_1"
19_LINCOLN     1        -0.1 +j      0.0        0.1      -0.9997
19_LINCOLN     2        -0.1 +j      0.0        0.1      -0.9997
19_LINCOLN     3        -0.1 +j      0.0        0.1      -0.9997
   TERMINAL TOTAL    -0.2 +j      0.0        0.2      -0.9997
20_ADAMS     1         0.1 +j     -0.0        0.1      -0.9968
20_ADAMS     2         0.1 +j     -0.0        0.1      -0.9968
20_ADAMS     3         0.1 +j     -0.0        0.1      -0.9968
   TERMINAL TOTAL     0.2 +j     -0.0        0.2      -0.9968

ELEMENT = "Line.19_34_1_1"
19_LINCOLN     1        -0.2 +j     -0.0        0.2       0.9896
19_LINCOLN     2        -0.2 +j     -0.0        0.2       0.9896
19_LINCOLN     3        -0.2 +j     -0.0        0.2       0.9896
   TERMINAL TOTAL    -0.6 +j     -0.1        0.6       0.9896
34_ROCKHILL     1         0.2 +j      0.1        0.2       0.9682
34_ROCKHILL     2         0.2 +j      0.1        0.2       0.9682
34_ROCKHILL     3         0.2 +j      0.1        0.2       0.9682
   TERMINAL TOTAL     0.7 +j      0.2        0.7       0.9682

ELEMENT = "Line.20_21_1_1"
20_ADAMS     1        -0.1 +j     -0.0        0.1       0.9999
20_ADAMS     2        -0.1 +j     -0.0        0.1       0.9999
20_ADAMS     3        -0.1 +j     -0.0        0.1       0.9999
   TERMINAL TOTAL    -0.4 +j     -0.0        0.4       0.9999
21_JAY     1         0.1 +j      0.0        0.1       0.9999
21_JAY     2         0.1 +j      0.0        0.1       0.9999
21_JAY     3         0.1 +j      0.0        0.1       0.9999
   TERMINAL TOTAL     0.4 +j      0.0        0.4       0.9999

ELEMENT = "Line.21_22_1_1"
21_JAY     1        -0.2 +j     -0.0        0.2       0.9894
21_JAY     2        -0.2 +j     -0.0        0.2       0.9894
21_JAY     3        -0.2 +j     -0.0        0.2       0.9894
   TERMINAL TOTAL    -0.5 +j     -0.1        0.5       0.9894
22_RANDOLPH     1         0.2 +j      0.0        0.2       0.9861
22_RANDOLPH     2         0.2 +j      0.0        0.2       0.9861
22_RANDOLPH     3         0.2 +j      0.0        0.2       0.9861
   TERMINAL TOTAL     0.5 +j      0.1        0.5       0.9861

ELEMENT = "Line.22_23_1_1"
22_RANDOLPH     1        -0.2 +j     -0.0        0.2       0.9772
22_RANDOLPH     2        -0.2 +j     -0.0        0.2       0.9772
22_RANDOLPH     3        -0.2 +j     -0.0        0.2       0.9772
   TERMINAL TOTAL    -0.6 +j     -0.1        0.6       0.9772
23_COLLCRNR     1         0.2 +j      0.1        0.2       0.9654
23_COLLCRNR     2         0.2 +j      0.1        0.2       0.9654
23_COLLCRNR     3         0.2 +j      0.1        0.2       0.9654
   TERMINAL TOTAL     0.6 +j      0.2        0.6       0.9654

ELEMENT = "Line.23_24_1_1"
23_COLLCRNR     1        -1.0 +j     -0.1        1.1       0.9901
23_COLLCRNR     2        -1.0 +j     -0.1        1.1       0.9901
23_COLLCRNR     3        -1.0 +j     -0.1        1.1       0.9901
   TERMINAL TOTAL    -3.1 +j     -0.4        3.2       0.9901
24_TRENTON     1         1.1 +j      0.3        1.1       0.9623
24_TRENTON     2         1.1 +j      0.3        1.1       0.9623
24_TRENTON     3         1.1 +j      0.3        1.1       0.9623
   TERMINAL TOTAL     3.3 +j      0.9        3.4       0.9623

ELEMENT = "Line.23_25_1_1"
23_COLLCRNR     1         0.3 +j     -0.0        0.3      -0.9997
23_COLLCRNR     2         0.3 +j     -0.0        0.3      -0.9997
23_COLLCRNR     3         0.3 +j     -0.0        0.3      -0.9997
   TERMINAL TOTAL     1.0 +j     -0.0        1.0      -0.9997
25_TANNRSCK     1        -0.3 +j      0.0        0.3      -0.9988
25_TANNRSCK     2        -0.3 +j      0.0        0.3      -0.9988
25_TANNRSCK     3        -0.3 +j      0.0        0.3      -0.9988
   TERMINAL TOTAL    -1.0 +j      0.0        1.0      -0.9988

ELEMENT = "Line.23_32_1_1"
23_COLLCRNR     1         0.5 +j      0.1        0.5       0.9815
23_COLLCRNR     2         0.5 +j      0.1        0.5       0.9815
23_COLLCRNR     3         0.5 +j      0.1        0.5       0.9815
   TERMINAL TOTAL     1.4 +j      0.3        1.5       0.9815
32_DELAWARE     1        -0.5 +j     -0.0        0.5       0.9974
32_DELAWARE     2        -0.5 +j     -0.0        0.5       0.9974
32_DELAWARE     3        -0.5 +j     -0.0        0.5       0.9974
   TERMINAL TOTAL    -1.4 +j     -0.1        1.4       0.9974

ELEMENT = "Line.24_70_1_1"
24_TRENTON     1        -0.6 +j     -0.2        0.6       0.9333
24_TRENTON     2        -0.6 +j     -0.2        0.6       0.9333
24_TRENTON     3        -0.6 +j     -0.2        0.6       0.9333
   TERMINAL TOTAL    -1.7 +j     -0.7        1.9       0.9333
70_PORTSMTH     1         0.6 +j      0.6        0.8       0.6955
70_PORTSMTH     2         0.6 +j      0.6        0.8       0.6955
70_PORTSMTH     3         0.6 +j      0.6        0.8       0.6955
   TERMINAL TOTAL     1.7 +j      1.8        2.5       0.6955

ELEMENT = "Line.24_72_1_1"
24_TRENTON     1        -0.6 +j     -0.1        0.6       0.9883
24_TRENTON     2        -0.6 +j     -0.1        0.6       0.9883
24_TRENTON     3        -0.6 +j     -0.1        0.6       0.9883
   TERMINAL TOTAL    -1.7 +j     -0.3        1.7       0.9883
72_HILLSBRO     1         0.6 +j      0.2        0.7       0.9278
72_HILLSBRO     2         0.6 +j      0.2        0.7       0.9278
72_HILLSBRO     3         0.6 +j      0.2        0.7       0.9278
   TERMINAL TOTAL     1.8 +j      0.7        2.0       0.9278

ELEMENT = "Line.25_27_1_1"
25_TANNRSCK     1         0.2 +j      0.1        0.2       0.9557
25_TANNRSCK     2         0.2 +j      0.1        0.2       0.9557
25_TANNRSCK     3         0.2 +j      0.1        0.2       0.9557
   TERMINAL TOTAL     0.6 +j      0.2        0.7       0.9557
27_MADISON     1        -0.2 +j     -0.1        0.2       0.9322
27_MADISON     2        -0.2 +j     -0.1        0.2       0.9322
27_MADISON     3        -0.2 +j     -0.1        0.2       0.9322
   TERMINAL TOTAL    -0.6 +j     -0.2        0.7       0.9322

ELEMENT = "Line.26_30_1_1"
26_TANNRSCK     1         0.1 +j     -0.1        0.2      -0.8865
26_TANNRSCK     2         0.1 +j     -0.1        0.2      -0.8865
26_TANNRSCK     3         0.1 +j     -0.1        0.2      -0.8865
   TERMINAL TOTAL     0.4 +j     -0.2        0.5      -0.8865
30_SORENSON     1        -0.1 +j     -0.1        0.2       0.7370
30_SORENSON     2        -0.1 +j     -0.1        0.2       0.7370
30_SORENSON     3        -0.1 +j     -0.1        0.2       0.7370
   TERMINAL TOTAL    -0.4 +j     -0.4        0.6       0.7370

ELEMENT = "Line.27_28_1_1"
27_MADISON     1         0.1 +j      0.0        0.1       0.9579
27_MADISON     2         0.1 +j      0.0        0.1       0.9579
27_MADISON     3         0.1 +j      0.0        0.1       0.9579
   TERMINAL TOTAL     0.2 +j      0.1        0.2       0.9579
28_MULLIN     1        -0.1 +j     -0.0        0.1       0.9458
28_MULLIN     2        -0.1 +j     -0.0        0.1       0.9458
28_MULLIN     3        -0.1 +j     -0.0        0.1       0.9458
   TERMINAL TOTAL    -0.2 +j     -0.1        0.2       0.9458

ELEMENT = "Line.27_32_1_1"
27_MADISON     1        -0.1 +j      0.0        0.1      -0.9858
27_MADISON     2        -0.1 +j      0.0        0.1      -0.9858
27_MADISON     3        -0.1 +j      0.0        0.1      -0.9858
   TERMINAL TOTAL    -0.2 +j      0.0        0.2      -0.9858
32_DELAWARE     1         0.1 +j     -0.0        0.1      -0.9766
32_DELAWARE     2         0.1 +j     -0.0        0.1      -0.9766
32_DELAWARE     3         0.1 +j     -0.0        0.1      -0.9766
   TERMINAL TOTAL     0.2 +j     -0.0        0.2      -0.9766

ELEMENT = "Line.27_115_1_1"
27_MADISON     1         0.0 +j      0.0        0.0       0.3449
27_MADISON     2         0.0 +j      0.0        0.0       0.3449
27_MADISON     3         0.0 +j      0.0        0.0       0.3449
   TERMINAL TOTAL     0.0 +j      0.0        0.0       0.3449
115_MEDFORD     1        -0.0 +j     -0.0        0.0       0.2621
115_MEDFORD     2        -0.0 +j     -0.0        0.0       0.2621
115_MEDFORD     3        -0.0 +j     -0.0        0.0       0.2621
   TERMINAL TOTAL    -0.0 +j     -0.1        0.1       0.2621

ELEMENT = "Line.28_29_1_1"
28_MULLIN     1         0.0 +j      0.0        0.0       0.9749
28_MULLIN     2         0.0 +j      0.0        0.0       0.9749
28_MULLIN     3         0.0 +j      0.0        0.0       0.9749
   TERMINAL TOTAL     0.1 +j      0.0        0.1       0.9749
29_GRANT     1        -0.0 +j     -0.0        0.0       0.9238
29_GRANT     2        -0.0 +j     -0.0        0.0       0.9238
29_GRANT     3        -0.0 +j     -0.0        0.0       0.9238
   TERMINAL TOTAL    -0.1 +j     -0.0        0.1       0.9238

ELEMENT = "Line.29_31_1_1"
29_GRANT     1        -0.0 +j      0.0        0.0      -0.9999
29_GRANT     2        -0.0 +j      0.0        0.0      -0.9999
29_GRANT     3        -0.0 +j      0.0        0.0      -0.9999
   TERMINAL TOTAL    -0.1 +j      0.0        0.1      -0.9999
31_DEERCRK     1         0.0 +j     -0.0        0.0      -0.9981
31_DEERCRK     2         0.0 +j     -0.0        0.0      -0.9981
31_DEERCRK     3         0.0 +j     -0.0        0.0      -0.9981
   TERMINAL TOTAL     0.1 +j     -0.0        0.1      -0.9981

ELEMENT = "Line.30_38_1_1"
30_SORENSON     1        -1.1 +j     -0.1        1.1       0.9951
30_SORENSON     2        -1.1 +j     -0.1        1.1       0.9951
30_SORENSON     3        -1.1 +j     -0.1        1.1       0.9951
   TERMINAL TOTAL    -3.3 +j     -0.3        3.3       0.9951
38_EASTLIMA     1         1.1 +j      0.2        1.1       0.9779
38_EASTLIMA     2         1.1 +j      0.2        1.1       0.9779
38_EASTLIMA     3         1.1 +j      0.2        1.1       0.9779
   TERMINAL TOTAL     3.4 +j      0.7        3.4       0.9779

ELEMENT = "Line.31_32_1_1"
31_DEERCRK     1        -0.1 +j     -0.0        0.1       0.9944
31_DEERCRK     2        -0.1 +j     -0.0        0.1       0.9944
31_DEERCRK     3        -0.1 +j     -0.0        0.1       0.9944
   TERMINAL TOTAL    -0.4 +j     -0.0        0.4       0.9944
32_DELAWARE     1         0.1 +j      0.0        0.1       0.9945
32_DELAWARE     2         0.1 +j      0.0        0.1       0.9945
32_DELAWARE     3         0.1 +j      0.0        0.1       0.9945
   TERMINAL TOTAL     0.4 +j      0.0        0.4       0.9945

ELEMENT = "Line.32_113_1_1"
32_DELAWARE     1         0.0 +j     -0.0        0.1      -0.7307
32_DELAWARE     2         0.0 +j     -0.0        0.1      -0.7307
32_DELAWARE     3         0.0 +j     -0.0        0.1      -0.7307
   TERMINAL TOTAL     0.1 +j     -0.1        0.2      -0.7307
113_DEERCRK     1        -0.0 +j      0.0        0.0      -0.8280
113_DEERCRK     2        -0.0 +j      0.0        0.0      -0.8280
113_DEERCRK     3        -0.0 +j      0.0        0.0      -0.8280
   TERMINAL TOTAL    -0.1 +j      0.1        0.1      -0.8280

ELEMENT = "Line.32_114_1_1"
32_DELAWARE     1         0.1 +j      0.0        0.1       0.9957
32_DELAWARE     2         0.1 +j      0.0        0.1       0.9957
32_DELAWARE     3         0.1 +j      0.0        0.1       0.9957
   TERMINAL TOTAL     0.2 +j      0.0        0.2       0.9957
114_WMEDFORD     1        -0.1 +j     -0.0        0.1       0.9923
114_WMEDFORD     2        -0.1 +j     -0.0        0.1       0.9923
114_WMEDFORD     3        -0.1 +j     -0.0        0.1       0.9923
   TERMINAL TOTAL    -0.2 +j     -0.0        0.2       0.9923

ELEMENT = "Line.33_37_1_1"
33_HAVILAND     1        -0.3 +j     -0.0        0.3       0.9830
33_HAVILAND     2        -0.3 +j     -0.0        0.3       0.9830
33_HAVILAND     3        -0.3 +j     -0.0        0.3       0.9830
   TERMINAL TOTAL    -0.8 +j     -0.1        0.8       0.9830
37_EASTLIMA     1         0.3 +j      0.1        0.3       0.9639
37_EASTLIMA     2         0.3 +j      0.1        0.3       0.9639
37_EASTLIMA     3         0.3 +j      0.1        0.3       0.9639
   TERMINAL TOTAL     0.8 +j      0.2        0.9       0.9639

ELEMENT = "Line.34_36_1_1"
34_ROCKHILL     1         0.1 +j      0.0        0.1       0.9234
34_ROCKHILL     2         0.1 +j      0.0        0.1       0.9234
34_ROCKHILL     3         0.1 +j      0.0        0.1       0.9234
   TERMINAL TOTAL     0.3 +j      0.1        0.3       0.9234
36_STERLING     1        -0.1 +j     -0.0        0.1       0.9203
36_STERLING     2        -0.1 +j     -0.0        0.1       0.9203
36_STERLING     3        -0.1 +j     -0.0        0.1       0.9203
   TERMINAL TOTAL    -0.3 +j     -0.1        0.3       0.9203

ELEMENT = "Line.34_37_1_1"
34_ROCKHILL     1        -0.4 +j     -0.1        0.4       0.9690
34_ROCKHILL     2        -0.4 +j     -0.1        0.4       0.9690
34_ROCKHILL     3        -0.4 +j     -0.1        0.4       0.9690
   TERMINAL TOTAL    -1.1 +j     -0.3        1.2       0.9690
37_EASTLIMA     1         0.4 +j      0.1        0.4       0.9682
37_EASTLIMA     2         0.4 +j      0.1        0.4       0.9682
37_EASTLIMA     3         0.4 +j      0.1        0.4       0.9682
   TERMINAL TOTAL     1.1 +j      0.3        1.2       0.9682

ELEMENT = "Line.34_43_1_1"
34_ROCKHILL     1        -0.1 +j     -0.0        0.1       0.9592
34_ROCKHILL     2        -0.1 +j     -0.0        0.1       0.9592
34_ROCKHILL     3        -0.1 +j     -0.0        0.1       0.9592
   TERMINAL TOTAL    -0.4 +j     -0.1        0.4       0.9592
43_SKENTON     1         0.1 +j      0.0        0.1       0.9644
43_SKENTON     2         0.1 +j      0.0        0.1       0.9644
43_SKENTON     3         0.1 +j      0.0        0.1       0.9644
   TERMINAL TOTAL     0.4 +j      0.1        0.4       0.9644

ELEMENT = "Line.35_36_1_1"
35_WESTLIMA     1         0.0 +j      0.0        0.0       0.5377
35_WESTLIMA     2         0.0 +j      0.0        0.0       0.5377
35_WESTLIMA     3         0.0 +j      0.0        0.0       0.5377
   TERMINAL TOTAL     0.0 +j      0.0        0.1       0.5377
36_STERLING     1        -0.0 +j     -0.0        0.0       0.5210
36_STERLING     2        -0.0 +j     -0.0        0.0       0.5210
36_STERLING     3        -0.0 +j     -0.0        0.0       0.5210
   TERMINAL TOTAL    -0.0 +j     -0.0        0.1       0.5210

ELEMENT = "Line.35_37_1_1"
35_WESTLIMA     1        -0.1 +j     -0.0        0.1       0.9331
35_WESTLIMA     2        -0.1 +j     -0.0        0.1       0.9331
35_WESTLIMA     3        -0.1 +j     -0.0        0.1       0.9331
   TERMINAL TOTAL    -0.3 +j     -0.1        0.4       0.9331
37_EASTLIMA     1         0.1 +j      0.0        0.1       0.9368
37_EASTLIMA     2         0.1 +j      0.0        0.1       0.9368
37_EASTLIMA     3         0.1 +j      0.0        0.1       0.9368
   TERMINAL TOTAL     0.3 +j      0.1        0.4       0.9368

ELEMENT = "Line.37_39_1_1"
37_EASTLIMA     1         0.1 +j      0.0        0.1       0.9186
37_EASTLIMA     2         0.1 +j      0.0        0.1       0.9186
37_EASTLIMA     3         0.1 +j      0.0        0.1       0.9186
   TERMINAL TOTAL     0.2 +j      0.1        0.2       0.9186
39_NWLIBRTY     1        -0.1 +j     -0.0        0.1       0.8774
39_NWLIBRTY     2        -0.1 +j     -0.0        0.1       0.8774
39_NWLIBRTY     3        -0.1 +j     -0.0        0.1       0.8774
   TERMINAL TOTAL    -0.2 +j     -0.1        0.2       0.8774

ELEMENT = "Line.37_40_1_1"
37_EASTLIMA     1         0.0 +j      0.0        0.0       0.9362
37_EASTLIMA     2         0.0 +j      0.0        0.0       0.9362
37_EASTLIMA     3         0.0 +j      0.0        0.0       0.9362
   TERMINAL TOTAL     0.1 +j      0.0        0.1       0.9362
40_WESTEND     1        -0.0 +j     -0.0        0.0       0.7557
40_WESTEND     2        -0.0 +j     -0.0        0.0       0.7557
40_WESTEND     3        -0.0 +j     -0.0        0.0       0.7557
   TERMINAL TOTAL    -0.1 +j     -0.1        0.1       0.7557

ELEMENT = "Line.38_65_1_1"
38_EASTLIMA     1        -2.0 +j     -0.7        2.1       0.9474
38_EASTLIMA     2        -2.0 +j     -0.7        2.1       0.9474
38_EASTLIMA     3        -2.0 +j     -0.7        2.1       0.9474
   TERMINAL TOTAL    -5.9 +j     -2.0        6.2       0.9474
65_MUSKNGUM     1         2.1 +j      1.6        2.6       0.7944
65_MUSKNGUM     2         2.1 +j      1.6        2.6       0.7944
65_MUSKNGUM     3         2.1 +j      1.6        2.6       0.7944
   TERMINAL TOTAL     6.3 +j      4.8        7.9       0.7944

ELEMENT = "Line.39_40_1_1"
39_NWLIBRTY     1        -0.0 +j     -0.0        0.0       0.9847
39_NWLIBRTY     2        -0.0 +j     -0.0        0.0       0.9847
39_NWLIBRTY     3        -0.0 +j     -0.0        0.0       0.9847
   TERMINAL TOTAL    -0.1 +j     -0.0        0.1       0.9847
40_WESTEND     1         0.0 +j      0.0        0.0       0.9985
40_WESTEND     2         0.0 +j      0.0        0.0       0.9985
40_WESTEND     3         0.0 +j      0.0        0.0       0.9985
   TERMINAL TOTAL     0.1 +j      0.0        0.1       0.9985

ELEMENT = "Line.40_41_1_1"
40_WESTEND     1        -0.1 +j     -0.0        0.1       0.9704
40_WESTEND     2        -0.1 +j     -0.0        0.1       0.9704
40_WESTEND     3        -0.1 +j     -0.0        0.1       0.9704
   TERMINAL TOTAL    -0.2 +j     -0.0        0.2       0.9704
41_STIFFIN     1         0.1 +j      0.0        0.1       0.9788
41_STIFFIN     2         0.1 +j      0.0        0.1       0.9788
41_STIFFIN     3         0.1 +j      0.0        0.1       0.9788
   TERMINAL TOTAL     0.2 +j      0.0        0.2       0.9788

ELEMENT = "Line.40_42_1_1"
40_WESTEND     1        -0.2 +j     -0.0        0.2       0.9690
40_WESTEND     2        -0.2 +j     -0.0        0.2       0.9690
40_WESTEND     3        -0.2 +j     -0.0        0.2       0.9690
   TERMINAL TOTAL    -0.5 +j     -0.1        0.5       0.9690
42_HOWARD     1         0.2 +j      0.0        0.2       0.9688
42_HOWARD     2         0.2 +j      0.0        0.2       0.9688
42_HOWARD     3         0.2 +j      0.0        0.2       0.9688
   TERMINAL TOTAL     0.5 +j      0.1        0.5       0.9688

ELEMENT = "Line.41_42_1_1"
41_STIFFIN     1        -0.2 +j     -0.0        0.2       0.9705
41_STIFFIN     2        -0.2 +j     -0.0        0.2       0.9705
41_STIFFIN     3        -0.2 +j     -0.0        0.2       0.9705
   TERMINAL TOTAL    -0.6 +j     -0.1        0.6       0.9705
42_HOWARD     1         0.2 +j      0.1        0.2       0.9651
42_HOWARD     2         0.2 +j      0.1        0.2       0.9651
42_HOWARD     3         0.2 +j      0.1        0.2       0.9651
   TERMINAL TOTAL     0.6 +j      0.2        0.6       0.9651

ELEMENT = "Line.42_49_1_1"
42_HOWARD     1        -0.3 +j     -0.1        0.4       0.9696
42_HOWARD     2        -0.3 +j     -0.1        0.4       0.9696
42_HOWARD     3        -0.3 +j     -0.1        0.4       0.9696
   TERMINAL TOTAL    -1.0 +j     -0.3        1.1       0.9696
49_PHILO     1         0.4 +j      0.2        0.4       0.9081
49_PHILO     2         0.4 +j      0.2        0.4       0.9081
49_PHILO     3         0.4 +j      0.2        0.4       0.9081
   TERMINAL TOTAL     1.1 +j      0.5        1.2       0.9081

ELEMENT = "Line.42_49_1_2"
42_HOWARD     1        -0.3 +j     -0.1        0.4       0.9696
42_HOWARD     2        -0.3 +j     -0.1        0.4       0.9696
42_HOWARD     3        -0.3 +j     -0.1        0.4       0.9696
   TERMINAL TOTAL    -1.0 +j     -0.3        1.1       0.9696
49_PHILO     1         0.4 +j      0.2        0.4       0.9081
49_PHILO     2         0.4 +j      0.2        0.4       0.9081
49_PHILO     3         0.4 +j      0.2        0.4       0.9081
   TERMINAL TOTAL     1.1 +j      0.5        1.2       0.9081

ELEMENT = "Line.43_44_1_1"
43_SKENTON     1        -0.2 +j     -0.1        0.2       0.9550
43_SKENTON     2        -0.2 +j     -0.1        0.2       0.9550
43_SKENTON     3        -0.2 +j     -0.1        0.2       0.9550
   TERMINAL TOTAL    -0.6 +j     -0.2        0.6       0.9550
44_WMVERNON     1         0.2 +j      0.1        0.2       0.9437
44_WMVERNON     2         0.2 +j      0.1        0.2       0.9437
44_WMVERNON     3         0.2 +j      0.1        0.2       0.9437
   TERMINAL TOTAL     0.6 +j      0.2        0.6       0.9437

ELEMENT = "Line.44_45_1_1"
44_WMVERNON     1        -0.3 +j     -0.1        0.3       0.9732
44_WMVERNON     2        -0.3 +j     -0.1        0.3       0.9732
44_WMVERNON     3        -0.3 +j     -0.1        0.3       0.9732
   TERMINAL TOTAL    -0.8 +j     -0.2        0.8       0.9732
45_NNEWARK     1         0.3 +j      0.1        0.3       0.9663
45_NNEWARK     2         0.3 +j      0.1        0.3       0.9663
45_NNEWARK     3         0.3 +j      0.1        0.3       0.9663
   TERMINAL TOTAL     0.8 +j      0.2        0.8       0.9663

ELEMENT = "Line.45_46_1_1"
45_NNEWARK     1        -0.2 +j     -0.1        0.3       0.9569
45_NNEWARK     2        -0.2 +j     -0.1        0.3       0.9569
45_NNEWARK     3        -0.2 +j     -0.1        0.3       0.9569
   TERMINAL TOTAL    -0.7 +j     -0.2        0.8       0.9569
46_WLANCST     1         0.2 +j      0.1        0.3       0.9507
46_WLANCST     2         0.2 +j      0.1        0.3       0.9507
46_WLANCST     3         0.2 +j      0.1        0.3       0.9507
   TERMINAL TOTAL     0.7 +j      0.2        0.8       0.9507

ELEMENT = "Line.45_49_1_1"
45_NNEWARK     1        -0.3 +j     -0.1        0.3       0.9811
45_NNEWARK     2        -0.3 +j     -0.1        0.3       0.9811
45_NNEWARK     3        -0.3 +j     -0.1        0.3       0.9811
   TERMINAL TOTAL    -0.8 +j     -0.2        0.8       0.9811
49_PHILO     1         0.3 +j      0.1        0.3       0.9729
49_PHILO     2         0.3 +j      0.1        0.3       0.9729
49_PHILO     3         0.3 +j      0.1        0.3       0.9729
   TERMINAL TOTAL     0.8 +j      0.2        0.8       0.9729

ELEMENT = "Line.46_47_1_1"
46_WLANCST     1        -0.3 +j     -0.1        0.3       0.9880
46_WLANCST     2        -0.3 +j     -0.1        0.3       0.9880
46_WLANCST     3        -0.3 +j     -0.1        0.3       0.9880
   TERMINAL TOTAL    -1.0 +j     -0.2        1.0       0.9880
47_CROOKSVL     1         0.3 +j      0.1        0.3       0.9802
47_CROOKSVL     2         0.3 +j      0.1        0.3       0.9802
47_CROOKSVL     3         0.3 +j      0.1        0.3       0.9802
   TERMINAL TOTAL     1.0 +j      0.2        1.0       0.9802

ELEMENT = "Line.46_48_1_1"
46_WLANCST     1        -0.0 +j     -0.0        0.1       0.8656
46_WLANCST     2        -0.0 +j     -0.0        0.1       0.8656
46_WLANCST     3        -0.0 +j     -0.0        0.1       0.8656
   TERMINAL TOTAL    -0.1 +j     -0.1        0.2       0.8656
48_ZANESVLL     1         0.0 +j      0.0        0.1       0.9765
48_ZANESVLL     2         0.0 +j      0.0        0.1       0.9765
48_ZANESVLL     3         0.0 +j      0.0        0.1       0.9765
   TERMINAL TOTAL     0.1 +j      0.0        0.2       0.9765

ELEMENT = "Line.47_49_1_1"
47_CROOKSVL     1         0.4 +j      0.1        0.4       0.9878
47_CROOKSVL     2         0.4 +j      0.1        0.4       0.9878
47_CROOKSVL     3         0.4 +j      0.1        0.4       0.9878
   TERMINAL TOTAL     1.2 +j      0.2        1.2       0.9878
49_PHILO     1        -0.4 +j     -0.0        0.4       0.9924
49_PHILO     2        -0.4 +j     -0.0        0.4       0.9924
49_PHILO     3        -0.4 +j     -0.0        0.4       0.9924
   TERMINAL TOTAL    -1.2 +j     -0.1        1.2       0.9924

ELEMENT = "Line.47_69_1_1"
47_CROOKSVL     1        -0.9 +j     -0.1        0.9       0.9898
47_CROOKSVL     2        -0.9 +j     -0.1        0.9       0.9898
47_CROOKSVL     3        -0.9 +j     -0.1        0.9       0.9898
   TERMINAL TOTAL    -2.7 +j     -0.4        2.8       0.9898
69_SPORN     1         1.1 +j      0.6        1.2       0.8845
69_SPORN     2         1.1 +j      0.6        1.2       0.8845
69_SPORN     3         1.1 +j      0.6        1.2       0.8845
   TERMINAL TOTAL     3.2 +j      1.7        3.6       0.8845

ELEMENT = "Line.48_49_1_1"
48_ZANESVLL     1        -0.1 +j      0.0        0.1      -0.9984
48_ZANESVLL     2        -0.1 +j      0.0        0.1      -0.9984
48_ZANESVLL     3        -0.1 +j      0.0        0.1      -0.9984
   TERMINAL TOTAL    -0.4 +j      0.0        0.4      -0.9984
49_PHILO     1         0.1 +j     -0.0        0.1      -0.9971
49_PHILO     2         0.1 +j     -0.0        0.1      -0.9971
49_PHILO     3         0.1 +j     -0.0        0.1      -0.9971
   TERMINAL TOTAL     0.4 +j     -0.0        0.4      -0.9971

ELEMENT = "Line.49_50_1_1"
49_PHILO     1         0.3 +j      0.0        0.3       0.9849
49_PHILO     2         0.3 +j      0.0        0.3       0.9849
49_PHILO     3         0.3 +j      0.0        0.3       0.9849
   TERMINAL TOTAL     0.8 +j      0.1        0.8       0.9849
50_WCAMBRDG     1        -0.3 +j     -0.0        0.3       0.9870
50_WCAMBRDG     2        -0.3 +j     -0.0        0.3       0.9870
50_WCAMBRDG     3        -0.3 +j     -0.0        0.3       0.9870
   TERMINAL TOTAL    -0.8 +j     -0.1        0.8       0.9870

ELEMENT = "Line.49_51_1_1"
49_PHILO     1         0.3 +j      0.1        0.3       0.9749
49_PHILO     2         0.3 +j      0.1        0.3       0.9749
49_PHILO     3         0.3 +j      0.1        0.3       0.9749
   TERMINAL TOTAL     1.0 +j      0.2        1.0       0.9749
51_NEWCMRST     1        -0.3 +j     -0.1        0.3       0.9849
51_NEWCMRST     2        -0.3 +j     -0.1        0.3       0.9849
51_NEWCMRST     3        -0.3 +j     -0.1        0.3       0.9849
   TERMINAL TOTAL    -1.0 +j     -0.2        1.0       0.9849

ELEMENT = "Line.49_54_1_1"
49_PHILO     1         0.2 +j      0.0        0.2       0.9736
49_PHILO     2         0.2 +j      0.0        0.2       0.9736
49_PHILO     3         0.2 +j      0.0        0.2       0.9736
   TERMINAL TOTAL     0.6 +j      0.1        0.6       0.9736
54_TORREY     1        -0.2 +j     -0.0        0.2       0.9706
54_TORREY     2        -0.2 +j     -0.0        0.2       0.9706
54_TORREY     3        -0.2 +j     -0.0        0.2       0.9706
   TERMINAL TOTAL    -0.6 +j     -0.1        0.6       0.9706

ELEMENT = "Line.49_54_1_2"
49_PHILO     1         0.2 +j      0.0        0.2       0.9827
49_PHILO     2         0.2 +j      0.0        0.2       0.9827
49_PHILO     3         0.2 +j      0.0        0.2       0.9827
   TERMINAL TOTAL     0.6 +j      0.1        0.6       0.9827
54_TORREY     1        -0.2 +j     -0.0        0.2       0.9797
54_TORREY     2        -0.2 +j     -0.0        0.2       0.9797
54_TORREY     3        -0.2 +j     -0.0        0.2       0.9797
   TERMINAL TOTAL    -0.6 +j     -0.1        0.6       0.9797

ELEMENT = "Line.49_66_1_1"
49_PHILO     1        -0.7 +j     -0.3        0.7       0.9087
49_PHILO     2        -0.7 +j     -0.3        0.7       0.9087
49_PHILO     3        -0.7 +j     -0.3        0.7       0.9087
   TERMINAL TOTAL    -2.0 +j     -0.9        2.2       0.9087
66_MUSKNGUM     1         0.7 +j      0.4        0.8       0.8666
66_MUSKNGUM     2         0.7 +j      0.4        0.8       0.8666
66_MUSKNGUM     3         0.7 +j      0.4        0.8       0.8666
   TERMINAL TOTAL     2.0 +j      1.2        2.3       0.8666

ELEMENT = "Line.49_66_1_2"
49_PHILO     1        -0.7 +j     -0.3        0.7       0.9087
49_PHILO     2        -0.7 +j     -0.3        0.7       0.9087
49_PHILO     3        -0.7 +j     -0.3        0.7       0.9087
   TERMINAL TOTAL    -2.0 +j     -0.9        2.2       0.9087
66_MUSKNGUM     1         0.7 +j      0.4        0.8       0.8666
66_MUSKNGUM     2         0.7 +j      0.4        0.8       0.8666
66_MUSKNGUM     3         0.7 +j      0.4        0.8       0.8666
   TERMINAL TOTAL     2.0 +j      1.2        2.3       0.8666

ELEMENT = "Line.49_69_1_1"
49_PHILO     1        -0.8 +j     -0.1        0.9       0.9949
49_PHILO     2        -0.8 +j     -0.1        0.9       0.9949
49_PHILO     3        -0.8 +j     -0.1        0.9       0.9949
   TERMINAL TOTAL    -2.5 +j     -0.3        2.6       0.9949
69_SPORN     1         1.0 +j      0.5        1.1       0.8850
69_SPORN     2         1.0 +j      0.5        1.1       0.8850
69_SPORN     3         1.0 +j      0.5        1.1       0.8850
   TERMINAL TOTAL     3.0 +j      1.6        3.4       0.8850

ELEMENT = "Line.50_57_1_1"
50_WCAMBRDG     1         0.2 +j      0.0        0.2       0.9914
50_WCAMBRDG     2         0.2 +j      0.0        0.2       0.9914
50_WCAMBRDG     3         0.2 +j      0.0        0.2       0.9914
   TERMINAL TOTAL     0.6 +j      0.1        0.6       0.9914
57_WNWPHIL1     1        -0.2 +j     -0.0        0.2       0.9894
57_WNWPHIL1     2        -0.2 +j     -0.0        0.2       0.9894
57_WNWPHIL1     3        -0.2 +j     -0.0        0.2       0.9894
   TERMINAL TOTAL    -0.5 +j     -0.1        0.6       0.9894

ELEMENT = "Line.51_52_1_1"
51_NEWCMRST     1         0.1 +j      0.0        0.1       0.9871
51_NEWCMRST     2         0.1 +j      0.0        0.1       0.9871
51_NEWCMRST     3         0.1 +j      0.0        0.1       0.9871
   TERMINAL TOTAL     0.4 +j      0.1        0.4       0.9871
52_SCOSHOCT     1        -0.1 +j     -0.0        0.1       0.9840
52_SCOSHOCT     2        -0.1 +j     -0.0        0.1       0.9840
52_SCOSHOCT     3        -0.1 +j     -0.0        0.1       0.9840
   TERMINAL TOTAL    -0.4 +j     -0.1        0.4       0.9840

ELEMENT = "Line.51_58_1_1"
51_NEWCMRST     1         0.1 +j     -0.0        0.1      -0.9999
51_NEWCMRST     2         0.1 +j     -0.0        0.1      -0.9999
51_NEWCMRST     3         0.1 +j     -0.0        0.1      -0.9999
   TERMINAL TOTAL     0.3 +j     -0.0        0.3      -0.9999
58_WNWPHIL2     1        -0.1 +j     -0.0        0.1       0.9995
58_WNWPHIL2     2        -0.1 +j     -0.0        0.1       0.9995
58_WNWPHIL2     3        -0.1 +j     -0.0        0.1       0.9995
   TERMINAL TOTAL    -0.3 +j     -0.0        0.3       0.9995

ELEMENT = "Line.52_53_1_1"
52_SCOSHOCT     1         0.1 +j      0.0        0.1       0.9985
52_SCOSHOCT     2         0.1 +j      0.0        0.1       0.9985
52_SCOSHOCT     3         0.1 +j      0.0        0.1       0.9985
   TERMINAL TOTAL     0.2 +j      0.0        0.2       0.9985
53_WOOSTER     1        -0.1 +j     -0.0        0.1       0.9641
53_WOOSTER     2        -0.1 +j     -0.0        0.1       0.9641
53_WOOSTER     3        -0.1 +j     -0.0        0.1       0.9641
   TERMINAL TOTAL    -0.2 +j     -0.0        0.2       0.9641

ELEMENT = "Line.53_54_1_1"
53_WOOSTER     1        -0.0 +j     -0.0        0.0       0.7832
53_WOOSTER     2        -0.0 +j     -0.0        0.0       0.7832
53_WOOSTER     3        -0.0 +j     -0.0        0.0       0.7832
   TERMINAL TOTAL    -0.1 +j     -0.1        0.1       0.7832
54_TORREY     1         0.0 +j      0.0        0.0       0.8880
54_TORREY     2         0.0 +j      0.0        0.0       0.8880
54_TORREY     3         0.0 +j      0.0        0.0       0.8880
   TERMINAL TOTAL     0.1 +j      0.1        0.1       0.8880

ELEMENT = "Line.54_55_1_1"
54_TORREY     1         0.0 +j      0.0        0.0       0.9971
54_TORREY     2         0.0 +j      0.0        0.0       0.9971
54_TORREY     3         0.0 +j      0.0        0.0       0.9971
   TERMINAL TOTAL     0.1 +j      0.0        0.1       0.9971
55_WAGENHLS     1        -0.0 +j     -0.0        0.0       0.9109
55_WAGENHLS     2        -0.0 +j     -0.0        0.0       0.9109
55_WAGENHLS     3        -0.0 +j     -0.0        0.0       0.9109
   TERMINAL TOTAL    -0.1 +j     -0.0        0.1       0.9109

ELEMENT = "Line.54_56_1_1"
54_TORREY     1        -0.0 +j     -0.0        0.0       0.3861
54_TORREY     2        -0.0 +j     -0.0        0.0       0.3861
54_TORREY     3        -0.0 +j     -0.0        0.0       0.3861
   TERMINAL TOTAL    -0.0 +j     -0.0        0.0       0.3861
56_SUNNYSDE     1         0.0 +j      0.0        0.0       0.5561
56_SUNNYSDE     2         0.0 +j      0.0        0.0       0.5561
56_SUNNYSDE     3         0.0 +j      0.0        0.0       0.5561
   TERMINAL TOTAL     0.0 +j      0.0        0.0       0.5561

ELEMENT = "Line.54_59_1_1"
54_TORREY     1        -0.1 +j     -0.1        0.2       0.9203
54_TORREY     2        -0.1 +j     -0.1        0.2       0.9203
54_TORREY     3        -0.1 +j     -0.1        0.2       0.9203
   TERMINAL TOTAL    -0.4 +j     -0.2        0.5       0.9203
59_TIDD     1         0.1 +j      0.1        0.2       0.9437
59_TIDD     2         0.1 +j      0.1        0.2       0.9437
59_TIDD     3         0.1 +j      0.1        0.2       0.9437
   TERMINAL TOTAL     0.4 +j      0.2        0.5       0.9437

ELEMENT = "Line.55_56_1_1"
55_WAGENHLS     1        -0.1 +j     -0.0        0.1       0.9760
55_WAGENHLS     2        -0.1 +j     -0.0        0.1       0.9760
55_WAGENHLS     3        -0.1 +j     -0.0        0.1       0.9760
   TERMINAL TOTAL    -0.3 +j     -0.1        0.3       0.9760
56_SUNNYSDE     1         0.1 +j      0.0        0.1       0.9783
56_SUNNYSDE     2         0.1 +j      0.0        0.1       0.9783
56_SUNNYSDE     3         0.1 +j      0.0        0.1       0.9783
   TERMINAL TOTAL     0.3 +j      0.1        0.3       0.9783

ELEMENT = "Line.55_59_1_1"
55_WAGENHLS     1        -0.2 +j     -0.1        0.2       0.9259
55_WAGENHLS     2        -0.2 +j     -0.1        0.2       0.9259
55_WAGENHLS     3        -0.2 +j     -0.1        0.2       0.9259
   TERMINAL TOTAL    -0.5 +j     -0.2        0.5       0.9259
59_TIDD     1         0.2 +j      0.1        0.2       0.9411
59_TIDD     2         0.2 +j      0.1        0.2       0.9411
59_TIDD     3         0.2 +j      0.1        0.2       0.9411
   TERMINAL TOTAL     0.5 +j      0.2        0.5       0.9411

ELEMENT = "Line.56_57_1_1"
56_SUNNYSDE     1        -0.1 +j     -0.0        0.1       0.9897
56_SUNNYSDE     2        -0.1 +j     -0.0        0.1       0.9897
56_SUNNYSDE     3        -0.1 +j     -0.0        0.1       0.9897
   TERMINAL TOTAL    -0.4 +j     -0.1        0.4       0.9897
57_WNWPHIL1     1         0.1 +j      0.0        0.1       0.9946
57_WNWPHIL1     2         0.1 +j      0.0        0.1       0.9946
57_WNWPHIL1     3         0.1 +j      0.0        0.1       0.9946
   TERMINAL TOTAL     0.4 +j      0.0        0.4       0.9946

ELEMENT = "Line.56_58_1_1"
56_SUNNYSDE     1        -0.1 +j      0.0        0.1      -0.9995
56_SUNNYSDE     2        -0.1 +j      0.0        0.1      -0.9995
56_SUNNYSDE     3        -0.1 +j      0.0        0.1      -0.9995
   TERMINAL TOTAL    -0.2 +j      0.0        0.2      -0.9995
58_WNWPHIL2     1         0.1 +j     -0.0        0.1      -0.9841
58_WNWPHIL2     2         0.1 +j     -0.0        0.1      -0.9841
58_WNWPHIL2     3         0.1 +j     -0.0        0.1      -0.9841
   TERMINAL TOTAL     0.2 +j     -0.0        0.2      -0.9841

ELEMENT = "Line.56_59_1_1"
56_SUNNYSDE     1        -0.1 +j     -0.0        0.1       0.9535
56_SUNNYSDE     2        -0.1 +j     -0.0        0.1       0.9535
56_SUNNYSDE     3        -0.1 +j     -0.0        0.1       0.9535
   TERMINAL TOTAL    -0.4 +j     -0.1        0.4       0.9535
59_TIDD     1         0.1 +j      0.0        0.1       0.9743
59_TIDD     2         0.1 +j      0.0        0.1       0.9743
59_TIDD     3         0.1 +j      0.0        0.1       0.9743
   TERMINAL TOTAL     0.4 +j      0.1        0.4       0.9743

ELEMENT = "Line.56_59_1_2"
56_SUNNYSDE     1        -0.1 +j     -0.0        0.1       0.9575
56_SUNNYSDE     2        -0.1 +j     -0.0        0.1       0.9575
56_SUNNYSDE     3        -0.1 +j     -0.0        0.1       0.9575
   TERMINAL TOTAL    -0.4 +j     -0.1        0.4       0.9575
59_TIDD     1         0.1 +j      0.0        0.1       0.9741
59_TIDD     2         0.1 +j      0.0        0.1       0.9741
59_TIDD     3         0.1 +j      0.0        0.1       0.9741
   TERMINAL TOTAL     0.4 +j      0.1        0.4       0.9741

ELEMENT = "Line.59_60_1_1"
59_TIDD     1        -0.3 +j     -0.1        0.3       0.9606
59_TIDD     2        -0.3 +j     -0.1        0.3       0.9606
59_TIDD     3        -0.3 +j     -0.1        0.3       0.9606
   TERMINAL TOTAL    -0.8 +j     -0.2        0.9       0.9606
60_SWKAMMER     1         0.3 +j      0.1        0.3       0.9524
60_SWKAMMER     2         0.3 +j      0.1        0.3       0.9524
60_SWKAMMER     3         0.3 +j      0.1        0.3       0.9524
   TERMINAL TOTAL     0.9 +j      0.3        0.9       0.9524

ELEMENT = "Line.59_61_1_1"
59_TIDD     1        -0.3 +j     -0.1        0.3       0.9721
59_TIDD     2        -0.3 +j     -0.1        0.3       0.9721
59_TIDD     3        -0.3 +j     -0.1        0.3       0.9721
   TERMINAL TOTAL    -1.0 +j     -0.2        1.0       0.9721
61_WKAMMER     1         0.3 +j      0.1        0.3       0.9595
61_WKAMMER     2         0.3 +j      0.1        0.3       0.9595
61_WKAMMER     3         0.3 +j      0.1        0.3       0.9595
   TERMINAL TOTAL     1.0 +j      0.3        1.0       0.9595

ELEMENT = "Line.60_61_1_1"
60_SWKAMMER     1        -0.6 +j     -0.1        0.6       0.9953
60_SWKAMMER     2        -0.6 +j     -0.1        0.6       0.9953
60_SWKAMMER     3        -0.6 +j     -0.1        0.6       0.9953
   TERMINAL TOTAL    -1.9 +j     -0.2        1.9       0.9953
61_WKAMMER     1         0.6 +j      0.1        0.6       0.9946
61_WKAMMER     2         0.6 +j      0.1        0.6       0.9946
61_WKAMMER     3         0.6 +j      0.1        0.6       0.9946
   TERMINAL TOTAL     1.9 +j      0.2        1.9       0.9946

ELEMENT = "Line.60_62_1_1"
60_SWKAMMER     1        -0.1 +j     -0.0        0.1       0.7956
60_SWKAMMER     2        -0.1 +j     -0.0        0.1       0.7956
60_SWKAMMER     3        -0.1 +j     -0.0        0.1       0.7956
   TERMINAL TOTAL    -0.2 +j     -0.1        0.2       0.7956
62_NATRIUM     1         0.1 +j      0.0        0.1       0.8330
62_NATRIUM     2         0.1 +j      0.0        0.1       0.8330
62_NATRIUM     3         0.1 +j      0.0        0.1       0.8330
   TERMINAL TOTAL     0.2 +j      0.1        0.2       0.8330

ELEMENT = "Line.61_62_1_1"
61_WKAMMER     1         0.1 +j     -0.0        0.1      -0.9436
61_WKAMMER     2         0.1 +j     -0.0        0.1      -0.9436
61_WKAMMER     3         0.1 +j     -0.0        0.1      -0.9436
   TERMINAL TOTAL     0.4 +j     -0.1        0.4      -0.9436
62_NATRIUM     1        -0.1 +j      0.0        0.1      -0.9491
62_NATRIUM     2        -0.1 +j      0.0        0.1      -0.9491
62_NATRIUM     3        -0.1 +j      0.0        0.1      -0.9491
   TERMINAL TOTAL    -0.4 +j      0.1        0.4      -0.9491

ELEMENT = "Line.62_66_1_1"
62_NATRIUM     1        -0.2 +j     -0.1        0.2       0.9155
62_NATRIUM     2        -0.2 +j     -0.1        0.2       0.9155
62_NATRIUM     3        -0.2 +j     -0.1        0.2       0.9155
   TERMINAL TOTAL    -0.6 +j     -0.3        0.6       0.9155
66_MUSKNGUM     1         0.2 +j      0.1        0.2       0.9311
66_MUSKNGUM     2         0.2 +j      0.1        0.2       0.9311
66_MUSKNGUM     3         0.2 +j      0.1        0.2       0.9311
   TERMINAL TOTAL     0.6 +j      0.2        0.6       0.9311

ELEMENT = "Line.62_67_1_1"
62_NATRIUM     1        -0.1 +j     -0.1        0.1       0.8729
62_NATRIUM     2        -0.1 +j     -0.1        0.1       0.8729
62_NATRIUM     3        -0.1 +j     -0.1        0.1       0.8729
   TERMINAL TOTAL    -0.4 +j     -0.2        0.4       0.8729
67_SUMMERFL     1         0.1 +j      0.1        0.1       0.9004
67_SUMMERFL     2         0.1 +j      0.1        0.1       0.9004
67_SUMMERFL     3         0.1 +j      0.1        0.1       0.9004
   TERMINAL TOTAL     0.4 +j      0.2        0.4       0.9004

ELEMENT = "Line.63_64_1_1"
63_TIDD     1        -1.3 +j     -0.7        1.5       0.8769
63_TIDD     2        -1.3 +j     -0.7        1.5       0.8769
63_TIDD     3        -1.3 +j     -0.7        1.5       0.8769
   TERMINAL TOTAL    -3.8 +j     -2.1        4.4       0.8769
64_KAMMER     1         1.3 +j      0.7        1.5       0.8787
64_KAMMER     2         1.3 +j      0.7        1.5       0.8787
64_KAMMER     3         1.3 +j      0.7        1.5       0.8787
   TERMINAL TOTAL     3.9 +j      2.1        4.4       0.8787

ELEMENT = "Line.64_65_1_1"
64_KAMMER     1        -2.4 +j     -0.9        2.5       0.9387
64_KAMMER     2        -2.4 +j     -0.9        2.5       0.9387
64_KAMMER     3        -2.4 +j     -0.9        2.5       0.9387
   TERMINAL TOTAL    -7.1 +j     -2.6        7.6       0.9387
65_MUSKNGUM     1         2.4 +j      1.1        2.6       0.9138
65_MUSKNGUM     2         2.4 +j      1.1        2.6       0.9138
65_MUSKNGUM     3         2.4 +j      1.1        2.6       0.9138
   TERMINAL TOTAL     7.2 +j      3.2        7.9       0.9138

ELEMENT = "Line.65_68_1_1"
65_MUSKNGUM     1        -6.5 +j     -4.0        7.7       0.8492
65_MUSKNGUM     2        -6.5 +j     -4.0        7.7       0.8492
65_MUSKNGUM     3        -6.5 +j     -4.0        7.7       0.8492
   TERMINAL TOTAL   -19.5 +j    -12.1       23.0       0.8492
68_SPORN     1         6.6 +j      5.3        8.5       0.7830
68_SPORN     2         6.6 +j      5.3        8.5       0.7830
68_SPORN     3         6.6 +j      5.3        8.5       0.7830
   TERMINAL TOTAL    19.9 +j     15.8       25.4       0.7830

ELEMENT = "Line.66_67_1_1"
66_MUSKNGUM     1         0.3 +j      0.1        0.3       0.9391
66_MUSKNGUM     2         0.3 +j      0.1        0.3       0.9391
66_MUSKNGUM     3         0.3 +j      0.1        0.3       0.9391
   TERMINAL TOTAL     0.8 +j      0.3        0.9       0.9391
67_SUMMERFL     1        -0.3 +j     -0.1        0.3       0.9418
67_SUMMERFL     2        -0.3 +j     -0.1        0.3       0.9418
67_SUMMERFL     3        -0.3 +j     -0.1        0.3       0.9418
   TERMINAL TOTAL    -0.8 +j     -0.3        0.9       0.9418

ELEMENT = "Line.68_81_1_1"
68_SPORN     1        -6.9 +j     -5.0        8.5       0.8079
68_SPORN     2        -6.9 +j     -5.0        8.5       0.8079
68_SPORN     3        -6.9 +j     -5.0        8.5       0.8079
   TERMINAL TOTAL   -20.6 +j    -15.1       25.6       0.8079
81_KANAWHA     1         7.0 +j      6.3        9.5       0.7442
81_KANAWHA     2         7.0 +j      6.3        9.5       0.7442
81_KANAWHA     3         7.0 +j      6.3        9.5       0.7442
   TERMINAL TOTAL    21.1 +j     19.0       28.4       0.7442

ELEMENT = "Line.68_116_1_1"
68_SPORN     1         1.4 +j     -0.1        1.4      -0.9978
68_SPORN     2         1.4 +j     -0.1        1.4      -0.9978
68_SPORN     3         1.4 +j     -0.1        1.4      -0.9978
   TERMINAL TOTAL     4.1 +j     -0.3        4.1      -0.9978
116_KYGERCRK     1        -1.4 +j      0.0        1.4      -1.0000
116_KYGERCRK     2        -1.4 +j      0.0        1.4      -1.0000
116_KYGERCRK     3        -1.4 +j      0.0        1.4      -1.0000
   TERMINAL TOTAL    -4.1 +j      0.0        4.1      -1.0000

ELEMENT = "Line.69_70_1_1"
69_SPORN     1         0.6 +j      0.5        0.8       0.8075
69_SPORN     2         0.6 +j      0.5        0.8       0.8075
69_SPORN     3         0.6 +j      0.5        0.8       0.8075
   TERMINAL TOTAL     1.9 +j      1.4        2.4       0.8075
70_PORTSMTH     1        -0.6 +j     -0.5        0.8       0.8093
70_PORTSMTH     2        -0.6 +j     -0.5        0.8       0.8093
70_PORTSMTH     3        -0.6 +j     -0.5        0.8       0.8093
   TERMINAL TOTAL    -1.9 +j     -1.4        2.3       0.8093

ELEMENT = "Line.69_75_1_1"
69_SPORN     1        -0.2 +j     -0.1        0.2       0.8067
69_SPORN     2        -0.2 +j     -0.1        0.2       0.8067
69_SPORN     3        -0.2 +j     -0.1        0.2       0.8067
   TERMINAL TOTAL    -0.5 +j     -0.4        0.7       0.8067
...